* AC phasor — series RC single-frequency
Vin in 0 AC 1
R1 in out 18k
C1 out 0 10n
.ac lin 1 363.6 363.6
.print ac V(out)
.end