* AC phasor — series RC single-frequency
Vin in 0 AC 1
R1 in out 1.5k
C1 out 0 47n
.ac lin 1 29.92k 29.92k
.print ac V(out)
.end