* AC phasor — series RC single-frequency
Vin in 0 AC 1
R1 in out 8.2k
C1 out 0 22n
.ac lin 1 58.18k 58.18k
.print ac V(out)
.end