* AC phasor — series RC single-frequency
Vin in 0 AC 1
R1 in out 1.2k
C1 out 0 22n
.ac lin 1 53.22k 53.22k
.print ac V(out)
.end