* AC phasor — series RC single-frequency
Vin in 0 AC 1
R1 in out 560k
C1 out 0 680n
.ac lin 1 6.493k 6.493k
.print ac V(out)
.end