* AC phasor — series RC single-frequency
Vin in 0 AC 1
R1 in out 18k
C1 out 0 220n
.ac lin 1 61.13k 61.13k
.print ac V(out)
.end