* AC phasor — series RC single-frequency
Vin in 0 AC 1
R1 in out 1.5k
C1 out 0 680n
.ac lin 1 33.52k 33.52k
.print ac V(out)
.end