* AC phasor — series RC single-frequency
Vin in 0 AC 1
R1 in out 150k
C1 out 0 3.3u
.ac lin 1 49.55k 49.55k
.print ac V(out)
.end