* AC phasor — series RC single-frequency
Vin in 0 AC 1
R1 in out 100k
C1 out 0 4.7u
.ac lin 1 60.82k 60.82k
.print ac V(out)
.end