* AC phasor — series RC single-frequency
Vin in 0 AC 1
R1 in out 120k
C1 out 0 1.5u
.ac lin 1 59.77k 59.77k
.print ac V(out)
.end