* AC phasor — series RC single-frequency
Vin in 0 AC 1
R1 in out 22k
C1 out 0 680n
.ac lin 1 15.12k 15.12k
.print ac V(out)
.end