* AC phasor — series RC single-frequency
Vin in 0 AC 1
R1 in out 100k
C1 out 0 680n
.ac lin 1 1.886k 1.886k
.print ac V(out)
.end