* AC phasor — series RC single-frequency
Vin in 0 AC 1
R1 in out 120k
C1 out 0 680n
.ac lin 1 51.79k 51.79k
.print ac V(out)
.end