* AC phasor — series RC single-frequency
Vin in 0 AC 1
R1 in out 470k
C1 out 0 470n
.ac lin 1 92.46k 92.46k
.print ac V(out)
.end