* AC phasor — series RC single-frequency
Vin in 0 AC 1
R1 in out 330k
C1 out 0 3.3u
.ac lin 1 20.18k 20.18k
.print ac V(out)
.end