* AC phasor — series RC single-frequency
Vin in 0 AC 1
R1 in out 3.3k
C1 out 0 15n
.ac lin 1 54.65k 54.65k
.print ac V(out)
.end