* AC phasor — series RC single-frequency
Vin in 0 AC 1
R1 in out 1.5k
C1 out 0 6.8u
.ac lin 1 78.13k 78.13k
.print ac V(out)
.end