* AC phasor — series RC single-frequency
Vin in 0 AC 1
R1 in out 2.2k
C1 out 0 100n
.ac lin 1 15.84k 15.84k
.print ac V(out)
.end