* AC phasor — series RC single-frequency
Vin in 0 AC 1
R1 in out 1.2k
C1 out 0 220n
.ac lin 1 13.96k 13.96k
.print ac V(out)
.end