* AC phasor — series RC single-frequency
Vin in 0 AC 1
R1 in out 5.6k
C1 out 0 1.5u
.ac lin 1 64.23k 64.23k
.print ac V(out)
.end