* AC phasor — series RC single-frequency
Vin in 0 AC 1
R1 in out 4.7k
C1 out 0 1.5u
.ac lin 1 26.07k 26.07k
.print ac V(out)
.end