* AC phasor — series RC single-frequency
Vin in 0 AC 1
R1 in out 5.6k
C1 out 0 680n
.ac lin 1 54.11k 54.11k
.print ac V(out)
.end