* AC phasor — series RC single-frequency
Vin in 0 AC 1
R1 in out 6.8k
C1 out 0 10n
.ac lin 1 41.9k 41.9k
.print ac V(out)
.end