* AC phasor — series RC single-frequency
Vin in 0 AC 1
R1 in out 68k
C1 out 0 3.3u
.ac lin 1 46.71k 46.71k
.print ac V(out)
.end