* AC phasor — series RC single-frequency
Vin in 0 AC 1
R1 in out 270k
C1 out 0 220n
.ac lin 1 57.23k 57.23k
.print ac V(out)
.end