* AC phasor — series RC single-frequency
Vin in 0 AC 1
R1 in out 2.2k
C1 out 0 6.8u
.ac lin 1 66.57k 66.57k
.print ac V(out)
.end