* AC phasor — series RC single-frequency
Vin in 0 AC 1
R1 in out 82k
C1 out 0 6.8u
.ac lin 1 82.54k 82.54k
.print ac V(out)
.end