* AC phasor — series RC single-frequency
Vin in 0 AC 1
R1 in out 39k
C1 out 0 10n
.ac lin 1 50.1k 50.1k
.print ac V(out)
.end