* AC phasor — series RC single-frequency
Vin in 0 AC 1
R1 in out 220k
C1 out 0 470n
.ac lin 1 98.73k 98.73k
.print ac V(out)
.end