* AC phasor — series RC single-frequency
Vin in 0 AC 1
R1 in out 120k
C1 out 0 68n
.ac lin 1 34.46k 34.46k
.print ac V(out)
.end