* AC phasor — series RC single-frequency
Vin in 0 AC 1
R1 in out 1.2k
C1 out 0 68n
.ac lin 1 35.8k 35.8k
.print ac V(out)
.end