* AC phasor — series RC single-frequency
Vin in 0 AC 1
R1 in out 470k
C1 out 0 220n
.ac lin 1 64.32k 64.32k
.print ac V(out)
.end