* AC phasor — series RC single-frequency
Vin in 0 AC 1
R1 in out 470k
C1 out 0 68n
.ac lin 1 1.624k 1.624k
.print ac V(out)
.end