* AC phasor — series RC single-frequency
Vin in 0 AC 1
R1 in out 68k
C1 out 0 68n
.ac lin 1 28.78k 28.78k
.print ac V(out)
.end