* AC phasor — series RC single-frequency
Vin in 0 AC 1
R1 in out 3.9k
C1 out 0 330n
.ac lin 1 79.49k 79.49k
.print ac V(out)
.end