* AC phasor — series RC single-frequency
Vin in 0 AC 1
R1 in out 8.2k
C1 out 0 2.2u
.ac lin 1 88.54k 88.54k
.print ac V(out)
.end