* AC phasor — series RC single-frequency
Vin in 0 AC 1
R1 in out 2.7k
C1 out 0 15n
.ac lin 1 45.61k 45.61k
.print ac V(out)
.end