* AC phasor — series RC single-frequency
Vin in 0 AC 1
R1 in out 33k
C1 out 0 1.5u
.ac lin 1 17.96k 17.96k
.print ac V(out)
.end