* AC phasor — series RC single-frequency
Vin in 0 AC 1
R1 in out 6.8k
C1 out 0 33n
.ac lin 1 95.09k 95.09k
.print ac V(out)
.end