* AC phasor — series RC single-frequency
Vin in 0 AC 1
R1 in out 22k
C1 out 0 100n
.ac lin 1 4.185k 4.185k
.print ac V(out)
.end