* AC phasor — series RC single-frequency
Vin in 0 AC 1
R1 in out 15k
C1 out 0 33n
.ac lin 1 70.58k 70.58k
.print ac V(out)
.end