* AC phasor — series RC single-frequency
Vin in 0 AC 1
R1 in out 820k
C1 out 0 1.5u
.ac lin 1 22.68k 22.68k
.print ac V(out)
.end