* AC phasor — series RC single-frequency
Vin in 0 AC 1
R1 in out 330k
C1 out 0 1u
.ac lin 1 85.87k 85.87k
.print ac V(out)
.end