* AC phasor — series RC single-frequency
Vin in 0 AC 1
R1 in out 560k
C1 out 0 100n
.ac lin 1 6.124k 6.124k
.print ac V(out)
.end