* AC phasor — series RC single-frequency
Vin in 0 AC 1
R1 in out 18k
C1 out 0 33n
.ac lin 1 39.82k 39.82k
.print ac V(out)
.end