* AC phasor — series RC single-frequency
Vin in 0 AC 1
R1 in out 270k
C1 out 0 3.3u
.ac lin 1 88.89k 88.89k
.print ac V(out)
.end