* Series RL phasor (single frequency)
Vin in 0 DC 0 AC 1
R1 in nrl 330
L1 nrl 0 22m
.ac lin 1 5k 5k
.print ac V(nrl)
.end