* Series RL phasor (single frequency)
Vin in 0 DC 0 AC 1
R1 in nrl 2.2k
L1 nrl 0 47m
.ac lin 1 5k 5k
.print ac V(nrl)
.end