* Series RL phasor (single frequency)
Vin in 0 DC 0 AC 1
R1 in nrl 3.3k
L1 nrl 0 100m
.ac lin 1 1k 1k
.print ac V(nrl)
.end