* MOSFET CS amplifier
VDD vdd 0 DC 10.44
Vin in 0 AC 1
Cin in gate 10u
RG1 vdd gate 820k
RG2 gate 0 470k
RD vdd drain 3.3k
M1 drain gate source 0 NMOS1
RS source 0 1.5k
Cout drain out 2.2u
Rload out 0 33k
.model NMOS1 NMOS (Level=1 VTO=2.0 KP=1.0e-3 L=2e-6 W=50e-6 Lambda=0.0 Gamma=0.0 Phi=0.6)
.ac dec 50 10 10Meg
.print ac V(out)
.end