* MOSFET CS amplifier
VDD vdd 0 DC 14.59
Vin in 0 AC 1
Cin in gate 6.8u
RG1 vdd gate 3.3Meg
RG2 gate 0 1.5Meg
RD vdd drain 4.7k
M1 drain gate source 0 NMOS1
RS source 0 2.2k
Cout drain out 15u
Rload out 0 47k
.model NMOS1 NMOS (Level=1 VTO=2.0 KP=1.0e-3 L=2e-6 W=50e-6 Lambda=0.0 Gamma=0.0 Phi=0.6)
.ac dec 50 10 10Meg
.print ac V(out)
.end