* MOSFET CS amplifier
VDD vdd 0 DC 11.19
Vin in 0 AC 1
Cin in gate 22u
RG1 vdd gate 820k
RG2 gate 0 390k
RD vdd drain 3.9k
M1 drain gate source 0 NMOS1
RS source 0 1.5k
Cout drain out 10u
Rload out 0 39k
.model NMOS1 NMOS (Level=1 VTO=2.0 KP=1.0e-3 L=2e-6 W=50e-6 Lambda=0.0 Gamma=0.0 Phi=0.6)
.ac dec 50 10 10Meg
.print ac V(out)
.end