* Difference amplifier
Va ina 0 DC 3.13
Vb inb 0 DC 4.02
Ra ina minus 22k
Rb inb nplus 22k
Rc nplus 0 68k
Rf out minus 68k
.subckt IDEAL_OPAMP in+ in- out
Rin in+ in- 1000Meg
E1 out 0 in+ in- 1e6
.ends IDEAL_OPAMP

X1 nplus minus out IDEAL_OPAMP
.op
.print dc V(out)
.end