* Difference amplifier
Va ina 0 DC 2.26
Vb inb 0 DC 4.21
Ra ina minus 39k
Rb inb nplus 39k
Rc nplus 0 220k
Rf out minus 220k
.subckt IDEAL_OPAMP in+ in- out
Rin in+ in- 1000Meg
E1 out 0 in+ in- 1e6
.ends IDEAL_OPAMP

X1 nplus minus out IDEAL_OPAMP
.op
.print dc V(out)
.end