* Difference amplifier
Va ina 0 DC 0.25
Vb inb 0 DC 1.9
Ra ina minus 27k
Rb inb nplus 27k
Rc nplus 0 180k
Rf out minus 180k
.subckt IDEAL_OPAMP in+ in- out
Rin in+ in- 1000Meg
E1 out 0 in+ in- 1e6
.ends IDEAL_OPAMP

X1 nplus minus out IDEAL_OPAMP
.op
.print dc V(out)
.end