* Difference amplifier
Va ina 0 DC 6.03
Vb inb 0 DC 3.61
Ra ina minus 1.5k
Rb inb nplus 1.5k
Rc nplus 0 6.8k
Rf out minus 6.8k
.subckt IDEAL_OPAMP in+ in- out
Rin in+ in- 1000Meg
E1 out 0 in+ in- 1e6
.ends IDEAL_OPAMP

X1 nplus minus out IDEAL_OPAMP
.op
.print dc V(out)
.end