* Difference amplifier
Va ina 0 DC 6.28
Vb inb 0 DC 7.94
Ra ina minus 2.2k
Rb inb nplus 2.2k
Rc nplus 0 12k
Rf out minus 12k
.subckt IDEAL_OPAMP in+ in- out
Rin in+ in- 1000Meg
E1 out 0 in+ in- 1e6
.ends IDEAL_OPAMP

X1 nplus minus out IDEAL_OPAMP
.op
.print dc V(out)
.end