* Difference amplifier
Va ina 0 DC 0.8
Vb inb 0 DC 1.47
Ra ina minus 82k
Rb inb nplus 82k
Rc nplus 0 180k
Rf out minus 180k
.subckt IDEAL_OPAMP in+ in- out
Rin in+ in- 1000Meg
E1 out 0 in+ in- 1e6
.ends IDEAL_OPAMP

X1 nplus minus out IDEAL_OPAMP
.op
.print dc V(out)
.end