* Summing (inverting) op-amp, 3 inputs
Va ina 0 DC 1.18
Vb inb 0 DC 1.5
Vc inc 0 DC 0.72
Ra ina minus 6.8k
Rb inb minus 6.8k
Rc inc minus 6.8k
Rf out minus 22k
.subckt IDEAL_OPAMP in+ in- out
Rin in+ in- 1000Meg
E1 out 0 in+ in- 1e6
.ends IDEAL_OPAMP

X1 0 minus out IDEAL_OPAMP
.op
.print dc V(out)
.end