* Summing (inverting) op-amp, 3 inputs
Va ina 0 DC 1.23
Vb inb 0 DC 2.05
Vc inc 0 DC 0.51
Ra ina minus 2.7k
Rb inb minus 2.7k
Rc inc minus 2.7k
Rf out minus 3.3k
.subckt IDEAL_OPAMP in+ in- out
Rin in+ in- 1000Meg
E1 out 0 in+ in- 1e6
.ends IDEAL_OPAMP

X1 0 minus out IDEAL_OPAMP
.op
.print dc V(out)
.end