* Non-inverting op-amp
Vs in 0 DC 1.62
Ra in nplus 8.2k
Rdiv nplus 0 15k
Rf out minus 330k
Rs minus 0 68k
.subckt IDEAL_OPAMP in+ in- out
Rin in+ in- 1000Meg
E1 out 0 in+ in- 1e6
.ends IDEAL_OPAMP

X1 nplus minus out IDEAL_OPAMP
.op
.print dc V(out) V(nplus)
.end