* Non-inverting op-amp
Vs in 0 DC 3.91
Ra in nplus 15k
Rdiv nplus 0 6.8k
Rf out minus 5.6k
Rs minus 0 1.2k
.subckt IDEAL_OPAMP in+ in- out
Rin in+ in- 1000Meg
E1 out 0 in+ in- 1e6
.ends IDEAL_OPAMP

X1 nplus minus out IDEAL_OPAMP
.op
.print dc V(out) V(nplus)
.end