* Difference amplifier
Va ina 0 DC 2.02
Vb inb 0 DC 0.43
Ra ina minus 39k
Rb inb nplus 39k
Rc nplus 0 270k
Rf out minus 270k
.subckt IDEAL_OPAMP in+ in- out
Rin in+ in- 1000Meg
E1 out 0 in+ in- 1e6
.ends IDEAL_OPAMP

X1 nplus minus out IDEAL_OPAMP
.op
.print dc V(out)
.end