* Non-inverting op-amp
Vs in 0 DC 1.97
Ra in nplus 27k
Rdiv nplus 0 47k
Rf out minus 12k
Rs minus 0 1.8k
.subckt IDEAL_OPAMP in+ in- out
Rin in+ in- 1000Meg
E1 out 0 in+ in- 1e6
.ends IDEAL_OPAMP

X1 nplus minus out IDEAL_OPAMP
.op
.print dc V(out) V(nplus)
.end