* Difference amplifier
Va ina 0 DC 2.03
Vb inb 0 DC 3.36
Ra ina minus 82k
Rb inb nplus 82k
Rc nplus 0 680k
Rf out minus 680k
.subckt IDEAL_OPAMP in+ in- out
Rin in+ in- 1000Meg
E1 out 0 in+ in- 1e6
.ends IDEAL_OPAMP

X1 nplus minus out IDEAL_OPAMP
.op
.print dc V(out)
.end