* Summing (inverting) op-amp, 3 inputs
Va ina 0 DC 0.08
Vb inb 0 DC 1.06
Vc inc 0 DC 1.28
Ra ina minus 15k
Rb inb minus 15k
Rc inc minus 15k
Rf out minus 68k
.subckt IDEAL_OPAMP in+ in- out
Rin in+ in- 1000Meg
E1 out 0 in+ in- 1e6
.ends IDEAL_OPAMP

X1 0 minus out IDEAL_OPAMP
.op
.print dc V(out)
.end