* Difference amplifier
Va ina 0 DC 7.73
Vb inb 0 DC 6.78
Ra ina minus 1.2k
Rb inb nplus 1.2k
Rc nplus 0 4.7k
Rf out minus 4.7k
.subckt IDEAL_OPAMP in+ in- out
Rin in+ in- 1000Meg
E1 out 0 in+ in- 1e6
.ends IDEAL_OPAMP

X1 nplus minus out IDEAL_OPAMP
.op
.print dc V(out)
.end