* Difference amplifier
Va ina 0 DC 2.49
Vb inb 0 DC 6.57
Ra ina minus 10k
Rb inb nplus 10k
Rc nplus 0 27k
Rf out minus 27k
.subckt IDEAL_OPAMP in+ in- out
Rin in+ in- 1000Meg
E1 out 0 in+ in- 1e6
.ends IDEAL_OPAMP

X1 nplus minus out IDEAL_OPAMP
.op
.print dc V(out)
.end