* Difference amplifier
Va ina 0 DC 6.02
Vb inb 0 DC 5.78
Ra ina minus 1.2k
Rb inb nplus 1.2k
Rc nplus 0 3.9k
Rf out minus 3.9k
.subckt IDEAL_OPAMP in+ in- out
Rin in+ in- 1000Meg
E1 out 0 in+ in- 1e6
.ends IDEAL_OPAMP

X1 nplus minus out IDEAL_OPAMP
.op
.print dc V(out)
.end