* Summing (inverting) op-amp, 3 inputs
Va ina 0 DC 1.6
Vb inb 0 DC 2.05
Vc inc 0 DC 2.46
Ra ina minus 1k
Rb inb minus 1k
Rc inc minus 1k
Rf out minus 1.8k
.subckt IDEAL_OPAMP in+ in- out
Rin in+ in- 1000Meg
E1 out 0 in+ in- 1e6
.ends IDEAL_OPAMP

X1 0 minus out IDEAL_OPAMP
.op
.print dc V(out)
.end