* Difference amplifier
Va ina 0 DC 3.2
Vb inb 0 DC 1.85
Ra ina minus 27k
Rb inb nplus 27k
Rc nplus 0 220k
Rf out minus 220k
.subckt IDEAL_OPAMP in+ in- out
Rin in+ in- 1000Meg
E1 out 0 in+ in- 1e6
.ends IDEAL_OPAMP

X1 nplus minus out IDEAL_OPAMP
.op
.print dc V(out)
.end