* Difference amplifier
Va ina 0 DC 4.57
Vb inb 0 DC 3.04
Ra ina minus 3.9k
Rb inb nplus 3.9k
Rc nplus 0 10k
Rf out minus 10k
.subckt IDEAL_OPAMP in+ in- out
Rin in+ in- 1000Meg
E1 out 0 in+ in- 1e6
.ends IDEAL_OPAMP

X1 nplus minus out IDEAL_OPAMP
.op
.print dc V(out)
.end