* Difference amplifier
Va ina 0 DC 4.1
Vb inb 0 DC 0.76
Ra ina minus 1k
Rb inb nplus 1k
Rc nplus 0 3.3k
Rf out minus 3.3k
.subckt IDEAL_OPAMP in+ in- out
Rin in+ in- 1000Meg
E1 out 0 in+ in- 1e6
.ends IDEAL_OPAMP

X1 nplus minus out IDEAL_OPAMP
.op
.print dc V(out)
.end