* Summing (inverting) op-amp, 3 inputs
Va ina 0 DC 2.47
Vb inb 0 DC 2.88
Vc inc 0 DC 0.76
Ra ina minus 1.5k
Rb inb minus 1.5k
Rc inc minus 1.5k
Rf out minus 2.7k
.subckt IDEAL_OPAMP in+ in- out
Rin in+ in- 1000Meg
E1 out 0 in+ in- 1e6
.ends IDEAL_OPAMP

X1 0 minus out IDEAL_OPAMP
.op
.print dc V(out)
.end