* Summing (inverting) op-amp, 3 inputs
Va ina 0 DC 0.59
Vb inb 0 DC 1.51
Vc inc 0 DC 1.48
Ra ina minus 39k
Rb inb minus 39k
Rc inc minus 39k
Rf out minus 120k
.subckt IDEAL_OPAMP in+ in- out
Rin in+ in- 1000Meg
E1 out 0 in+ in- 1e6
.ends IDEAL_OPAMP

X1 0 minus out IDEAL_OPAMP
.op
.print dc V(out)
.end