* Difference amplifier
Va ina 0 DC 1.37
Vb inb 0 DC 2.7
Ra ina minus 68k
Rb inb nplus 68k
Rc nplus 0 560k
Rf out minus 560k
.subckt IDEAL_OPAMP in+ in- out
Rin in+ in- 1000Meg
E1 out 0 in+ in- 1e6
.ends IDEAL_OPAMP

X1 nplus minus out IDEAL_OPAMP
.op
.print dc V(out)
.end