* Difference amplifier
Va ina 0 DC 5.1
Vb inb 0 DC 3.45
Ra ina minus 33k
Rb inb nplus 33k
Rc nplus 0 220k
Rf out minus 220k
.subckt IDEAL_OPAMP in+ in- out
Rin in+ in- 1000Meg
E1 out 0 in+ in- 1e6
.ends IDEAL_OPAMP

X1 nplus minus out IDEAL_OPAMP
.op
.print dc V(out)
.end