* RC high-pass filter
Vin in 0 AC 1
C1 in out 100n
R1 out 0 390k
.ac dec 50 0.01 10Meg
.print ac V(out)
.end