* RC high-pass filter
Vin in 0 AC 1
C1 in out 680n
R1 out 0 2.7Meg
.ac dec 50 0.01 10Meg
.print ac V(out)
.end