* RC low-pass filter
Vin in 0 AC 1
R1 in out 100k
C1 out 0 680n
.ac dec 50 0.01 10Meg
.print ac V(out)
.end