* RC low-pass filter
Vin in 0 AC 1
R1 in out 2.7k
C1 out 0 3.3u
.ac dec 50 0.01 10Meg
.print ac V(out)
.end