* RC low-pass filter
Vin in 0 AC 1
R1 in out 3.9Meg
C1 out 0 330n
.ac dec 50 0.01 10Meg
.print ac V(out)
.end