* RC low-pass filter
Vin in 0 AC 1
R1 in out 8.2k
C1 out 0 2.2n
.ac dec 50 0.01 10Meg
.print ac V(out)
.end