* RC low-pass filter
Vin in 0 AC 1
R1 in out 10k
C1 out 0 6.8n
.ac dec 50 0.01 10Meg
.print ac V(out)
.end