* RC low-pass filter
Vin in 0 AC 1
R1 in out 6.8k
C1 out 0 10n
.ac dec 50 0.01 10Meg
.print ac V(out)
.end