* RC step response — transient analysis
Vin in 0 PWL(0 0 4.9500e-04 0 4.9549e-04 1.4102234951931885)
R1 in out 150k
C1 out 0 3.3u
.tran 0.000495 4.95
.print tran V(out)
.end