* RC step response — transient analysis
Vin in 0 PWL(0 0 2.6320e-05 0 2.6346e-05 5.204248103772766)
R1 in out 5.6k
C1 out 0 4.7u
.tran 2.632e-05 0.2632
.print tran V(out)
.end