* RC step response — transient analysis
Vin in 0 PWL(0 0 4.9500e-03 0 4.9549e-03 1.8991330604141003)
R1 in out 150k
C1 out 0 33u
.tran 0.00495 49.5
.print tran V(out)
.end