* RC step response — transient analysis
Vin in 0 PWL(0 0 8.5800e-08 0 8.5886e-08 1.7099910332206631)
R1 in out 3.9k
C1 out 0 22n
.tran 8.58e-08 0.000858
.print tran V(out)
.end