* RC step response — transient analysis
Vin in 0 PWL(0 0 2.2440e-04 0 2.2462e-04 1.017855907504039)
R1 in out 680k
C1 out 0 330n
.tran 0.0002244 2.244
.print tran V(out)
.end