* RC step response — transient analysis
Vin in 0 PWL(0 0 3.9600e-05 0 3.9640e-05 3.909911660114335)
R1 in out 1.8k
C1 out 0 22u
.tran 3.96e-05 0.396
.print tran V(out)
.end