* RC step response — transient analysis
Vin in 0 PWL(0 0 8.2000e-07 0 8.2082e-07 3.8218808945261635)
R1 in out 8.2k
C1 out 0 100n
.tran 8.2e-07 0.0082
.print tran V(out)
.end