* RC step response — transient analysis
Vin in 0 PWL(0 0 1.0340e-06 0 1.0350e-06 6.095361193752225)
R1 in out 4.7k
C1 out 0 220n
.tran 1.034e-06 0.01034
.print tran V(out)
.end