* RC step response — transient analysis
Vin in 0 PWL(0 0 1.8330e-03 0 1.8348e-03 9.676494167893118)
R1 in out 390k
C1 out 0 4.7u
.tran 0.001833 18.33
.print tran V(out)
.end