* RC step response — transient analysis
Vin in 0 PWL(0 0 1.8360e-04 0 1.8378e-04 1.114620947212464)
R1 in out 270k
C1 out 0 680n
.tran 0.0001836 1.836
.print tran V(out)
.end