* RC step response — transient analysis
Vin in 0 PWL(0 0 1.0000e-04 0 1.0010e-04 3.398984312782452)
R1 in out 10k
C1 out 0 10u
.tran 0.0001 1
.print tran V(out)
.end