* RC step response — transient analysis
Vin in 0 PWL(0 0 8.4600e-03 0 8.4685e-03 5.342682122206587)
R1 in out 180k
C1 out 0 47u
.tran 0.00846 84.6
.print tran V(out)
.end