* RC step response — transient analysis
Vin in 0 PWL(0 0 7.0500e-06 0 7.0570e-06 2.469037917117497)
R1 in out 4.7k
C1 out 0 1.5u
.tran 7.05e-06 0.0705
.print tran V(out)
.end