* RC step response — transient analysis
Vin in 0 PWL(0 0 2.6400e-03 0 2.6426e-03 2.5696049055075534)
R1 in out 120k
C1 out 0 22u
.tran 0.00264 26.4
.print tran V(out)
.end