* RC step response — transient analysis
Vin in 0 PWL(0 0 1.0340e-05 0 1.0350e-05 3.7790218896217227)
R1 in out 220k
C1 out 0 47n
.tran 1.034e-05 0.1034
.print tran V(out)
.end