* RC step response — transient analysis
Vin in 0 PWL(0 0 1.0200e-04 0 1.0210e-04 8.200736296561931)
R1 in out 680k
C1 out 0 150n
.tran 0.000102 1.02
.print tran V(out)
.end