* RC step response — transient analysis
Vin in 0 PWL(0 0 2.7000e-04 0 2.7027e-04 2.6074209585232047)
R1 in out 18k
C1 out 0 15u
.tran 0.00027 2.7
.print tran V(out)
.end