* RC step response — transient analysis
Vin in 0 PWL(0 0 8.5800e-06 0 8.5886e-06 7.773146983668098)
R1 in out 390k
C1 out 0 22n
.tran 8.58e-06 0.0858
.print tran V(out)
.end