* RC step response — transient analysis
Vin in 0 PWL(0 0 4.7000e-06 0 4.7047e-06 7.123963335812242)
R1 in out 1k
C1 out 0 4.7u
.tran 4.7e-06 0.047
.print tran V(out)
.end