* RC step response — transient analysis
Vin in 0 PWL(0 0 3.8080e-06 0 3.8118e-06 8.35303473894946)
R1 in out 5.6k
C1 out 0 680n
.tran 3.808e-06 0.03808
.print tran V(out)
.end