* RC step response — transient analysis
Vin in 0 PWL(0 0 8.1600e-06 0 8.1682e-06 4.550377775876308)
R1 in out 12k
C1 out 0 680n
.tran 8.16e-06 0.0816
.print tran V(out)
.end