* RC step response — transient analysis
Vin in 0 PWL(0 0 3.9000e-04 0 3.9039e-04 4.0601947181836024)
R1 in out 39k
C1 out 0 10u
.tran 0.00039 3.9
.print tran V(out)
.end