* RC step response — transient analysis
Vin in 0 PWL(0 0 5.6000e-06 0 5.6056e-06 1.1859507265307148)
R1 in out 5.6k
C1 out 0 1u
.tran 5.6e-06 0.056
.print tran V(out)
.end