* RC step response — transient analysis
Vin in 0 PWL(0 0 2.7060e-04 0 2.7087e-04 3.8833679732816084)
R1 in out 82k
C1 out 0 3.3u
.tran 0.0002706 2.706
.print tran V(out)
.end