* RC step response — transient analysis
Vin in 0 PWL(0 0 3.3000e-06 0 3.3033e-06 7.779603660043663)
R1 in out 1k
C1 out 0 3.3u
.tran 3.3e-06 0.033
.print tran V(out)
.end