* RL step response — transient analysis
Vin in 0 PWL(0 0 1.0000e-08 0 1.0010e-08 2.593715418327302)
R1 in mid 470
L1 mid 0 4.7m
.tran 1e-08 0.0001
.print tran I(L1)
.end