* RL step response — transient analysis
Vin in 0 PWL(0 0 3.7037e-09 0 3.7074e-09 4.19789100660573)
R1 in mid 27k
L1 mid 0 100m
.tran 3.704e-09 3.704e-05
.print tran I(L1)
.end