* RL step response — transient analysis
Vin in 0 PWL(0 0 8.1481e-09 0 8.1563e-09 7.301837302274941)
R1 in mid 270
L1 mid 0 2.2m
.tran 8.148e-09 8.148e-05
.print tran I(L1)
.end