* RL step response — transient analysis
Vin in 0 PWL(0 0 1.0000e-07 0 1.0010e-07 9.84904889925538)
R1 in mid 1k
L1 mid 0 100m
.tran 1e-07 0.001
.print tran I(L1)
.end