* RL step response — transient analysis
Vin in 0 PWL(0 0 1.4706e-08 0 1.4721e-08 2.635620718664234)
R1 in mid 6.8k
L1 mid 0 100m
.tran 1.471e-08 0.0001471
.print tran I(L1)
.end