* RL step response — transient analysis
Vin in 0 PWL(0 0 3.7037e-08 0 3.7074e-08 4.135868383857348)
R1 in mid 270
L1 mid 0 10m
.tran 3.704e-08 0.0003704
.print tran I(L1)
.end