* RL step response — transient analysis
Vin in 0 PWL(0 0 6.6667e-09 0 6.6733e-09 5.76809582575299)
R1 in mid 1.5k
L1 mid 0 10m
.tran 6.667e-09 6.667e-05
.print tran I(L1)
.end