* RL step response — transient analysis
Vin in 0 PWL(0 0 8.3333e-10 0 8.3417e-10 2.8849634319114847)
R1 in mid 12k
L1 mid 0 10m
.tran 8.333e-10 8.333e-06
.print tran I(L1)
.end