* RL step response — transient analysis
Vin in 0 PWL(0 0 3.9286e-11 0 3.9325e-11 4.5173521837671355)
R1 in mid 56k
L1 mid 0 2.2m
.tran 3.929e-11 3.929e-07
.print tran I(L1)
.end