* RL step response — transient analysis
Vin in 0 PWL(0 0 1.0000e-08 0 1.0010e-08 7.996659569444402)
R1 in mid 100
L1 mid 0 1m
.tran 1e-08 0.0001
.print tran I(L1)
.end