* RL step response — transient analysis
Vin in 0 PWL(0 0 5.5556e-11 0 5.5611e-11 7.382115857849014)
R1 in mid 18k
L1 mid 0 1m
.tran 5.556e-11 5.556e-07
.print tran I(L1)
.end