* RL step response — transient analysis
Vin in 0 PWL(0 0 4.7000e-09 0 4.7047e-09 5.771812846194787)
R1 in mid 1k
L1 mid 0 4.7m
.tran 4.7e-09 4.7e-05
.print tran I(L1)
.end