* RL step response — transient analysis
Vin in 0 PWL(0 0 2.2000e-10 0 2.2022e-10 7.623924578171879)
R1 in mid 10k
L1 mid 0 2.2m
.tran 2.2e-10 2.2e-06
.print tran I(L1)
.end