* RL step response — transient analysis
Vin in 0 PWL(0 0 1.2195e-11 0 1.2207e-11 4.32088685170428)
R1 in mid 82k
L1 mid 0 1m
.tran 1.22e-11 1.22e-07
.print tran I(L1)
.end