* RL step response — transient analysis
Vin in 0 PWL(0 0 1.2051e-09 0 1.2063e-09 5.268645186496918)
R1 in mid 39k
L1 mid 0 47m
.tran 1.205e-09 1.205e-05
.print tran I(L1)
.end