* RL step response — transient analysis
Vin in 0 PWL(0 0 1.0000e-09 0 1.0010e-09 5.951874273257672)
R1 in mid 10k
L1 mid 0 10m
.tran 1e-09 1e-05
.print tran I(L1)
.end