* RL step response — transient analysis
Vin in 0 PWL(0 0 8.3333e-09 0 8.3417e-09 7.599535883037236)
R1 in mid 12k
L1 mid 0 100m
.tran 8.333e-09 8.333e-05
.print tran I(L1)
.end