* RL step response — transient analysis
Vin in 0 PWL(0 0 1.0000e-08 0 1.0010e-08 5.191810394343023)
R1 in mid 4.7k
L1 mid 0 47m
.tran 1e-08 0.0001
.print tran I(L1)
.end