* RL step response — transient analysis
Vin in 0 PWL(0 0 6.9118e-08 0 6.9187e-08 3.809535830401937)
R1 in mid 680
L1 mid 0 47m
.tran 6.912e-08 0.0006912
.print tran I(L1)
.end