* RL step response — transient analysis
Vin in 0 PWL(0 0 5.7317e-09 0 5.7374e-09 9.04523473846753)
R1 in mid 8.2k
L1 mid 0 47m
.tran 5.732e-09 5.732e-05
.print tran I(L1)
.end