* RLC series band-pass filter  (output across R)
Vin in 0 AC 1
L1 in mid 47m
C1 mid out 68n
R1 out 0 100
.ac dec 500 10 10Meg
.print ac V(out)
.end