* Series RLC resonance
Vin in 0 AC 1
R1 in mid 2.7
L1 mid n1 2.2m
C1 n1 0 6.8u
.ac dec 500 10 10Meg
.print ac V(mid) V(n1)
.end